**
** ABAQUS Input Deck Generated by HyperMesh Version  : 11.0.0.39
** Generated using HyperMesh-Abaqus Template Version : 11.0.0.39
**
**   Template:  ABAQUS/STANDARD 2D
**
*NODE
         2,  150.0          ,  90.0           
         3,  0.0            ,  90.0           
        29,  150.0          ,  100.0          
        32,  -5.32907052E-16,  100.0          
        33,  -3.55271368E-15,  35.0           
        34,  0.0            ,  31.111111111111
        35,  -3.55271368E-15,  27.222222222222
        36,  -3.55271368E-15,  23.333333333333
        37,  -3.55271368E-15,  19.444444444444
        38,  0.0            ,  15.555555555556
        39,  0.0            ,  11.666666666667
        40,  0.0            ,  7.7777777777778
        41,  -3.55271368E-15,  3.8888888888889
        42,  0.0            ,  1.776356839E-15
        43,  3.9473684210526,  1.776356839E-15
        44,  7.8947368421053,  1.776356839E-15
        45,  11.842105263158,  3.552713679E-15
        46,  15.78947368421 ,  3.552713679E-15
        47,  19.736842105263,  1.776356839E-15
        48,  23.684210526316,  1.776356839E-15
** ... 6183 like lines cut
**HWCOLOR COMP          1     4
*ELEMENT,TYPE=CPE4R,ELSET=Geom
      2787,      2546,       568,      2551,      4740
      2786,       550,      2546,      4740,      2519
      2785,      2542,      4739,      2501,       548
      2784,      4739,      2502,       528,      2501
      2783,      2555,       555,      2502,      4739
      2782,       579,      2555,      4739,      2542
      2781,      2553,      4738,      2544,       578
      2780,      4738,      2499,       549,      2544
      2779,      2500,       527,      2499,      4738
      2778,       554,      2500,      4738,      2553
      2777,      2506,      4737,      2547,       551
      2776,      4737,      2538,       569,      2547
      2775,      2505,       546,      2538,      4737
      2774,       530,      2505,      4737,      2506
      2773,      2504,      4736,      2541,       548
      2772,      4736,      2540,       570,      2541
      2771,      2503,       547,      2540,      4736
      2770,       529,      2503,      4736,      2504
      2769,      2543,      4735,      2536,       574
      2768,      4735,      2491,       545,      2536
** ... 5524 like lines cut
**HWCOLOR COMP          2     3
*ELEMENT,TYPE=CPE4R,ELSET=Rigid
      6946,     17242,     17246,     17238,     17239
      6947,     17246,     17076,     17077,     17238
      6948,     17243,     17245,     17246,     17242
      6949,     17245,     17075,     17076,     17246
      6950,     17244,     17247,     17245,     17243
      6951,     17247,     17074,     17075,     17245
      6952,     17072,     17073,     17247,     17244
      6953,     17073,        29,     17074,     17247
      6954,     17224,     17248,     17250,     17223
      6955,     17223,     17250,     17241,     17222
      6956,     17242,     17251,     17249,     17243
      6957,     17251,     17250,     17248,     17249
      6958,     17239,     17240,     17251,     17242
      6959,     17240,     17241,     17250,     17251
      6960,         2,     17070,     17252,     17225
      6961,     17225,     17252,     17248,     17224
      6962,     17244,     17253,     17071,     17072
      6963,     17253,     17252,     17070,     17071
      6964,     17243,     17249,     17253,     17244
      6965,     17249,     17248,     17252,     17253
** ... 355 like lines cut
**HM_comp_by_property "Gasket_prop"     3
*SOLID SECTION, ELSET=Geom, MATERIAL=MAT
**HM_comp_by_property "Rigid_prop"     4
*SOLID SECTION, ELSET=Rigid, MATERIAL=Rigid_MAT
*NSET, NSET=BCs
        33,        34,        35,        36,        37,        38,        39,        40,
        41,        42,        43,        44,        45,        46,        47,        48,
        49,        50,        51,        52,        53,        54,        55,        56,
        57,        58,        59,        60,        61,        62,        63,        64,
        65,        66,        67,        68,        69,        70,        71,        72,
        73,        74,        75,        76,        77,        78,        79,        80,
        81,        82,        83,        84,        85,        86,        87,        88,
        89,        90,        91,        92,        93,        94,        95,      1521,
      1523,      1525,      1527,      1529,      1531,      1533,      1535,      1537,
      1540,      1541,      1543,      1545,      1548,      1550,      1552,      1554,
      1556,      1559,      1561,      1563,      1565,      1567,      1569,      1571,
      1573,      1575,      1577,      1579,      1581,      1583,      1585,      1587,
      1589,      1591,      1593,      1595,      1597,      1599,      1601,      1603,
      1605,      1607,      1609,      1612,      1614,      1616,      1618,      1619,
      1621,      1623,      1625,      1627,      1629,      1631,      1633,      1636,
      1638,      1640,      1642,      1644,      1646
*NSET, NSET=Disp_nods
         2,         3,        29,        32,     17070,     17071,     17072,     17073,
     17074,     17075,     17076,     17077,     17078,     17079,     17080,     17081,
     17082,     17083,     17084,     17085,     17086,     17087,     17088,     17089,
     17090,     17091,     17092,     17093,     17094,     17095,     17096,     17097,
     17098,     17099,     17100,     17101,     17102,     17103,     17104,     17105,
     17106,     17107,     17108,     17109,     17110,     17111,     17112,     17113,
     17114,     17115,     17116,     17117,     17118,     17119,     17120,     17121,
     17122,     17123,     17124,     17125,     17126,     17127,     17128,     17129,
     17130,     17131,     17132,     17133,     17134,     17135,     17136,     17137,
     17138,     17139,     17140,     17141,     17142,     17143,     17144,     17145,
     17146,     17147,     17148,     17149,     17150,     17151,     17152,     17153,
     17154,     17155,     17156,     17157,     17158,     17159,     17160,     17161,
     17162,     17163,     17164,     17165,     17166,     17167,     17168,     17169,
     17170,     17171,     17172,     17173,     17174,     17175,     17176,     17177,
     17178,     17179,     17180,     17181,     17182,     17183,     17184,     17185,
     17186,     17187,     17188,     17189,     17190,     17191,     17192,     17193,
     17194,     17195,     17196,     17197,     17198,     17199,     17200,     17201,
     17202,     17203,     17204,     17205,     17206,     17207,     17208,     17209,
     17210,     17211,     17212,     17213,     17214,     17215,     17216,     17217,
     17218,     17219,     17220,     17221,     17222,     17223,     17224,     17225,
** ... 37 like lines cut
*MATERIAL, NAME=MAT
*HYPERELASTIC,NEO HOOKE,MODULI = INSTANTANEOUS
0.08, 0.2, 
*MATERIAL, NAME=Rigid_MAT
*ELASTIC, TYPE = ISOTROPIC
1.0000E+20,0.3       ,0.0       
*SURFACE INTERACTION, NAME = Friction
1.0       ,
*FRICTION
0.05      ,0.0       ,0.0       ,0.0       
**HMNAME GROUPS          1 CP
*CONTACT PAIR, INTERACTION=Friction, TYPE=SURFACE TO SURFACE
S2,M2
**HMNAME GROUPS          2 CP1
*CONTACT PAIR, INTERACTION=Friction, TYPE=SURFACE TO SURFACE
S3,M2
*SURFACE, NAME = M2, TYPE = ELEMENT
**HMNAME CONTACTSURF  M2,       5
    6960, S4
    7307, S4
    7195, S4
    7196, S4
    7182, S4
    7184, S4
    7167, S4
    7171, S4
    7170, S4
    7157, S4
    7159, S4
    7140, S4
    7139, S4
    7146, S4
    7145, S4
    7122, S4
    7126, S4
    7125, S4
    7112, S4
    7114, S4
** ... 55 like lines cut
*SURFACE, NAME = S1, TYPE = ELEMENT
**HMNAME CONTACTSURF  S1,       3
    2927, S1
    2870, S1
    2871, S1
    2810, S1
    2811, S1
    2764, S3
    2765, S3
    2700, S3
    2701, S3
    2652, S3
    2653, S3
    2596, S3
    2597, S3
    2551, S2
    2552, S2
    2505, S4
    2502, S4
    2478, S1
    2479, S1
    2430, S1
** ... 118 like lines cut
*SURFACE, NAME = S2, TYPE = ELEMENT
**HMNAME CONTACTSURF  S2,       4
    5861, S4
    5858, S4
    5917, S4
    5914, S4
    5981, S4
    5978, S4
    6025, S4
    6022, S4
    6065, S4
    6062, S4
    6089, S4
    6086, S4
    6121, S4
    6118, S4
    6162, S1
    6163, S1
    6173, S4
    6170, S4
    6178, S1
    6179, S1
** ... 83 like lines cut
*SURFACE, NAME = S3, TYPE = ELEMENT
**HMNAME CONTACTSURF  S3,       5
    6942, S1
    6943, S1
    6938, S1
    6939, S1
    6934, S1
    6935, S1
    6926, S1
    6927, S1
    6918, S1
    6919, S1
    6913, S4
    6910, S4
    6890, S1
    6891, S1
    6882, S1
    6883, S1
    6858, S1
    6859, S1
    6834, S1
    6835, S1
** ... 19 like lines cut
*CONTACT
*CONTACT INCLUSIONS
S1, S1
**HMNAME LOADSTEP          1 Disp_load
*STEP, INC =          500, NAME = Disp_load, NLGEOM = YES
Disp_load
*STATIC
1.0000E-05,1.0       ,          ,          
**HWNAME LOADCOL          1 BCs
**HWCOLOR LOADCOL          1     3
*BOUNDARY
BCs,1,2,0.0
Disp_nods,1, ,0.0            
Disp_nods,2, ,-30.0          
*OUTPUT, FIELD, VARIABLE = PRESELECT, NUMBER INTERVAL = 200
*NODE OUTPUT, VARIABLE = PRESELECT
*ELEMENT OUTPUT, VARIABLE = PRESELECT
*CONTACT OUTPUT, VARIABLE = PRESELECT
*END STEP
