**
** ABAQUS Input Deck Generated by HyperMesh Version  : 11.0.0.39
** Generated using HyperMesh-Abaqus Template Version : 11.0.0.39
**
**   Template:  ABAQUS/STANDARD 2D
**
*NODE
         1,  -3.55271368E-15,  35.0           
         2,  0.0            ,  31.111111111111
         3,  -3.55271368E-15,  27.222222222222
         4,  -3.55271368E-15,  23.333333333333
         5,  -3.55271368E-15,  19.444444444444
         6,  0.0            ,  15.555555555556
         7,  0.0            ,  11.666666666667
         8,  0.0            ,  7.7777777777778
         9,  -3.55271368E-15,  3.8888888888889
        10,  0.0            ,  1.776356839E-15
        11,  3.9473684210526,  1.776356839E-15
        12,  7.8947368421053,  1.776356839E-15
        13,  11.842105263158,  3.552713679E-15
        14,  15.78947368421 ,  3.552713679E-15
        15,  19.736842105263,  1.776356839E-15
        16,  23.684210526316,  1.776356839E-15
        17,  27.631578947368,  1.776356839E-15
        18,  31.578947368421,  1.776356839E-15
        19,  35.526315789474,  1.776356839E-15
        20,  39.473684210526,  1.776356839E-15
** ... 1500 like lines cut
**HWCOLOR COMP          1     4
*ELEMENT,TYPE=CPS3,ELSET=Geom
      1601,       203,         9,        11
      1602,         9,        10,        11
      1603,        11,        12,       203
      1604,        12,       207,       203
      1605,       203,       205,       204
      1606,       203,       204,         9
      1607,         8,         9,       204
      1608,         8,       204,       206
      1609,         8,       206,         7
      1610,       206,       208,         7
      1611,       203,       207,       205
      1612,       207,       210,       205
      1613,       205,       209,       206
      1614,       205,       206,       204
      1615,        12,        13,       211
      1616,        12,       211,       207
      1617,       206,       209,       208
      1618,       209,       213,       208
      1619,       205,       210,       209
      1620,       210,       215,       209
** ... 2752 like lines cut
**HWCOLOR COMP          2     3
*ELEMENT,TYPE=CPS4I,ELSET=Rigid
      4373,      1620,      1619,      1617,      1605
      4374,      1603,      1625,      1616,      1632
      4375,      1625,      1620,      1605,      1616
      4376,      1601,      1623,      1615,      1614
      4377,      1623,      1621,      1618,      1615
      4378,      1619,      1622,      1613,      1617
      4379,      1622,      1601,      1614,      1613
      4380,      1604,      1628,      1610,      1611
      4381,      1628,      1630,      1612,      1610
      4382,      1621,      1624,      1609,      1618
      4383,      1624,      1604,      1611,      1609
      4384,      1631,      1627,      1607,      1608
      4385,      1627,      1602,      1629,      1607
      4386,      1630,      1626,      1606,      1612
      4387,      1626,      1631,      1608,      1606
**HM_comp_by_property "Gasket_prop"     3
*SOLID SECTION, ELSET=Geom, MATERIAL=MAT
**HM_comp_by_property "Rigid_prop"     4
*SOLID SECTION, ELSET=Rigid, MATERIAL=Rigid_MAT
*NSET, NSET=BCs
         1,         2,         3,         4,         5,         6,         7,         8,
         9,        10,        11,        12,        13,        14,        15,        16,
        17,        18,        19,        20,        21,        22,        23,        24,
        25,        26,        27,        28,        29,        30,        31,        32,
        33,        34,        35,        36,        37,        38,        39,        40,
        41,        42,        43,        44,        45,        46,        47,        48,
        49,        50,        51,        52,        53,        54,        55,        56,
        57,        58,        59,        60,        61,        62,        63
*NSET, NSET=Disp_nods
      1601,      1602,      1603,      1604,      1605,      1606,      1607,      1608,
      1609,      1610,      1611,      1612,      1613,      1614,      1615,      1616,
      1617,      1618,      1619,      1620,      1621,      1622,      1623,      1624,
      1625,      1626,      1627,      1628,      1629,      1630,      1631,      1632
*MATERIAL, NAME=MAT
*HYPERELASTIC,NEO HOOKE,MODULI = INSTANTANEOUS
3.92E-02,	4.08E-01, 
*MATERIAL, NAME=Rigid_MAT
*ELASTIC, TYPE = ISOTROPIC
1.0000E+20,0.3       ,0.0       
**HM_UNSUPPORTED_CARDS_MIDDLE
*User element, nodes=3, type=U1, properties=3, coordinates=2, variables=7
1,2
*Element, type=U1, Elset=COMP
1,2,202,1
10,9,10,11
*User element, nodes=4, type=U2, properties=3, coordinates=2, variables=7
1,2
*Element, type=U2, Elset=COMP
26,25,26,407,27
48,1231,47,48,49
49,1231,48,49,50
63,63,64,1488,62
66,66,67,1486,65
68,69,1484,68,67
78,79,1415,78,77
80,81,1398,80,79
82,83,1379,82,81
88,1331,88,89,87
100,100,101,1044,99
106,923,106,107,105
108,107,108,931,109
120,120,1212,119,121
131,130,131,1317,132
133,132,133,1320,134
144,1255,144,145,143
146,146,147,1225,145
160,161,822,160,159
177,499,177,178,176
183,183,184,437,182
187,386,187,188,186
194,326,194,195,193
*User element, nodes=5, type=U3, properties=3, coordinates=2, variables=7
1,2
*Element, type=U3, Elset=COMP
3,4,235,3,245,2
4,5,223,4,235,3
5,6,214,5,223,4
6,7,208,6,214,5
7,8,206,7,208,6
8,8,9,204,206,7
11,203,9,11,10,12
13,12,13,211,212,14
14,14,217,212,13,15
15,217,14,15,227,16
17,17,246,16,18,251
18,17,18,251,270,19
19,18,19,270,282,20
20,19,20,282,297,21
21,20,21,297,315,22
22,21,22,315,333,23
23,22,23,333,349,24
24,23,24,349,366,25
27,407,26,27,420,28
28,420,27,28,438,29
** ... 142 like lines cut
*User element, nodes=6, type=U4, properties=3, coordinates=2, variables=7
1,2
*Element, type=U4, Elset=COMP
2,3,245,2,258,202,1
9,203,9,11,10,204,8
12,11,12,203,207,13,211
16,16,236,227,15,17,246
25,24,25,366,380,26,407
39,764,38,39,809,855,40
55,54,55,1361,1383,1396,56
67,67,68,1484,1482,66,1486
73,74,1452,73,1461,72,1468
79,1398,1407,79,80,1415,78
81,81,82,1379,1395,1398,80
84,1352,1364,84,85,1374,83
92,92,93,1218,1249,1279,91
102,102,103,986,1004,101,1027
107,923,106,107,912,108,931
114,1077,1054,114,113,1092,115
130,130,1309,1313,129,131,1317
132,132,1312,1317,131,133,1320
134,134,1315,1320,133,1321,135
145,145,146,1225,1229,1255,144
** ... 192 like lines cut
*User element, nodes=7, type=U5, properties=3, coordinates=2, variables=7
1,2
*Element, type=U5, Elset=COMP
203,203,9,11,12,207,205,204
205,203,205,204,207,210,209,206
206,8,204,206,7,208,205,209
209,205,209,206,208,213,210,215
210,207,210,205,209,215,211,218
213,209,213,208,215,222,220,219
214,208,214,6,219,221,5,223
215,210,215,209,213,222,218,226
216,211,212,216,218,225,224,217
217,14,217,212,224,216,15,227
218,211,218,210,215,226,216,225
220,213,220,219,222,230,228,221
221,214,219,221,223,229,220,228
222,215,222,213,220,230,226,233
223,214,223,5,221,229,4,235
224,224,216,217,225,231,227,234
225,218,216,225,224,231,226,232
226,218,226,215,222,233,225,232
227,217,15,227,224,234,16,236
228,220,228,221,229,237,230,238
** ... 876 like lines cut
*User element, nodes=8, type=U6, properties=3, coordinates=2, variables=7
1,2
*Element, type=U6, Elset=COMP
208,206,208,7,209,213,6,214,219
211,12,13,211,207,210,218,212,216
230,222,230,220,228,238,233,240,250
245,235,245,3,239,252,2,258,266
250,230,240,250,238,263,254,253,269
253,240,242,253,269,250,255,267,285
259,247,259,248,261,272,262,273,280
274,263,274,254,261,283,281,271,290
285,267,285,253,269,279,295,302,291
290,283,274,290,281,291,299,300,310
291,291,281,271,269,285,302,290,299
292,273,280,292,284,301,198,304,197
301,280,293,301,292,308,309,304,317
302,285,302,291,295,312,299,322,332
310,300,290,310,299,318,321,311,327
317,301,308,317,309,326,318,196,195
318,318,308,300,310,326,317,327,335
327,327,318,310,321,335,328,337,342
332,312,332,302,322,325,341,350,340
340,340,328,320,322,332,350,345,355
** ... 163 like lines cut
*User element, nodes=9, type=U7, properties=3, coordinates=2, variables=7
1,2
*Element, type=U7, Elset=COMP
270,270,260,251,18,19,282,275,286,287
654,168,631,654,167,661,653,679,694,684
794,760,722,794,754,813,778,800,832,859
928,928,885,852,884,918,959,967,938,999
1012,962,921,1012,969,1020,1063,1018,1061,1101
1044,1044,1027,1009,1016,1070,1041,100,101,99
1197,1197,1177,1150,1170,1209,1191,1214,1196,1233
1303,1281,1262,1303,1289,1300,1318,1325,1316,1335
1354,1339,1344,1354,1346,1356,1367,1358,1369,1371
1404,1395,1386,1404,1392,1398,1407,1401,1413,1418
*UEL Property, Elset=COMP
1.,0.4774536, 0.492,0.707
*SURFACE INTERACTION, NAME = Friction
1.0       ,
*FRICTION
0.05      ,0.0       ,0.0       ,0.0       
**HMNAME GROUPS          1 CP
*CONTACT PAIR, INTERACTION=Friction, TYPE=SURFACE TO SURFACE
S2, M2
**HMNAME GROUPS          7 CP1
*CONTACT PAIR, INTERACTION=Friction, TYPE=SURFACE TO SURFACE
S3, M3
*SURFACE, NAME = M2, TYPE = ELEMENT
**HMNAME CONTACTSURF  M2,       4
    4379, S1
    4376, S1
    4374, S1
    4383, S1
    4380, S1
    4373, S1
    4378, S1
    4375, S1
    4377, S1
    4382, S1
    4381, S1
*SURFACE, NAME = S1, TYPE = ELEMENT
**HMNAME CONTACTSURF  S1,       3
    4174, S2
    4154, S3
    4139, S1
    4110, S3
    4094, S2
    4072, S2
    4064, S2
    4044, S2
    4028, S2
    4008, S2
    3969, S2
    3915, S2
    3861, S2
    3809, S1
    3753, S1
    3700, S2
    3653, S1
    3603, S1
    3554, S2
    3499, S1
** ... 50 like lines cut
*SURFACE, NAME = S2, TYPE = ELEMENT
**HMNAME CONTACTSURF  S2,       6
    3784, S3
    3830, S3
    3858, S3
    3890, S3
    3912, S3
    3932, S3
    3944, S3
    3960, S3
    3981, S1
    3986, S3
    3989, S1
    3994, S3
    3997, S1
    4000, S3
    4004, S2
    3995, S3
    3987, S1
    3977, S1
    3963, S1
    3947, S1
** ... 42 like lines cut
*SURFACE, NAME = S3, TYPE = ELEMENT
**HMNAME CONTACTSURF  S3,       5
    4371, S1
    4369, S1
    4367, S1
    4363, S1
    4359, S1
    4356, S3
    4345, S1
    4341, S1
    4329, S1
    4317, S1
    4297, S3
    4281, S3
    4265, S3
    4246, S1
    4223, S1
    4204, S3
*SURFACE, NAME = M3, TYPE = ELEMENT
**HMNAME CONTACTSURF  M3,       5
    4385, S1
    4386, S1
    4387, S1
    4384, S1
*CONTACT
*CONTACT INCLUSIONS
S1, S1   
**HMNAME LOADSTEP          1 Disp_load
*STEP, INC =          500, NAME = Disp_load, NLGEOM = YES
Disp_load
*STATIC
1.0000E-01,1.0       ,          ,          
**HWNAME LOADCOL          1 BCs
**HWCOLOR LOADCOL          1     3
*BOUNDARY
BCs,1,2,0.0
Disp_nods,1, ,0.0            
Disp_nods,2, ,-30.0          
*CONTACT CONTROLS, AUTOMATIC TOLERANCES
*CONTROLS, ANALYSIS = DISCONTINUOUS 
*OUTPUT, FIELD, VARIABLE = PRESELECT
*NODE OUTPUT, VARIABLE = PRESELECT
*ELEMENT OUTPUT, VARIABLE = PRESELECT
*CONTACT OUTPUT, VARIABLE = PRESELECT
*END STEP
