**
** ABAQUS Input Deck Generated by HyperMesh Version  : 11.0.0.39
** Generated using HyperMesh-Abaqus Template Version : 11.0.0.39
**
**   Template:  ABAQUS/STANDARD 2D
**
*NODE
         1,  0.0            ,  0.0            
         2,  0.0            ,  1.0            
         3,  0.0            ,  0.95           
         4,  0.0            ,  0.9            
         5,  0.0            ,  0.85           
         6,  0.0            ,  0.8            
         7,  0.0            ,  0.75           
         8,  0.0            ,  0.7            
         9,  0.0            ,  0.65           
        10,  0.0            ,  0.6            
        11,  0.0            ,  0.55           
        12,  0.0            ,  0.5            
        13,  0.0            ,  0.45           
        14,  0.0            ,  0.4            
        15,  0.0            ,  0.35           
        16,  0.0            ,  0.3            
        17,  0.0            ,  0.25           
        18,  0.0            ,  0.2            
        19,  0.0            ,  0.15           
        20,  0.0            ,  0.1            
** ... 1466 like lines cut
**HWCOLOR COMP          1     4
*User element, nodes=3, type=U1, properties=3, coordinates=2, variables=7
1,2
*Element, type=U1, Elset=COMP
1,21,1,22
101,102,100,101	
*User element, nodes=4, type=U2, properties=3, coordinates=2, variables=7
1,2
*Element, type=U2, Elset=COMP
2,2,3,423,160
81,1085,80,81,82
*User element, nodes=5, type=U3, properties=3, coordinates=2, variables=7
1,2
*Element, type=U3, Elset=COMP
3,2,3,423,424,4
4,415,424,4,5,3
5,5,6,418,415,4
6,5,6,418,7,402
7,6,7,402,8,451
8,7,8,451,9,452
9,8,9,452,10,443
10,10,11,446,443,9
11,10,11,446,12,212
12,12,13,297,212,11
13,12,13,297,298,14
14,289,298,14,15,13
15,15,16,292,289,14
16,15,16,292,17,276
17,16,17,276,18,325
18,17,18,325,326,19
19,317,326,19,20,18
20,20,21,320,317,19
21,20,21,320,1,22
22,320,22,23,21,1
** ... 136 like lines cut
*User element, nodes=7, type=U5, properties=3, coordinates=2, variables=7
1,2
*Element, type=U5, Elset=COMP
161,530,534,161,162,51,871,52
162,530,161,162,539,163,871,868
163,538,539,163,164,162,868,877
164,493,538,164,165,163,876,877
165,510,493,165,166,164,827,876
166,506,510,166,167,165,843,827
167,506,166,167,515,168,843,840
168,514,515,168,169,167,849,840
169,465,514,169,170,168,848,849
170,465,169,170,660,171,848,763
171,656,660,171,172,170,997,763
172,656,171,172,665,173,997,994
173,664,665,173,174,172,1003,994
174,619,664,174,175,173,1002,1003
175,636,619,175,176,174,953,1002
176,632,636,176,177,175,969,953
177,632,176,177,178,641,969,966
178,177,178,641,179,640,966,975
179,132,640,179,131,178,974,975
180,264,268,180,181,36,586,37
** ... 1101 like lines cut
*UEL Property, Elset=COMP
1.,1.0, 0.3,0.3
**HWCOLOR COMP          1     4
*ELEMENT,TYPE=CPE3,ELSET=SLAB
      1661,       232,       234,       228
      1662,       232,       228,       229
      1663,       234,       223,       224
      1664,       234,       224,       228
      1665,       215,       216,       235
      1666,       215,       235,       233
      1667,       233,       235,       234
      1668,       233,       234,       232
      1669,       216,       217,       222
      1670,       216,       222,       235
      1671,       235,       222,       223
      1672,       235,       223,       234
      1673,       229,       230,       236
      1674,       229,       236,       232
      1675,       232,       236,       237
      1676,       232,       237,       233
      1677,       233,       237,       214
      1678,       233,       214,       215
      1679,       203,       238,       231
      1680,       203,       231,       202
** ... 2380 like lines cut
**HWCOLOR COMP          2     3
*ELEMENT,TYPE=CPE4I,ELSET=DIE
      1501,      2883,      2884,      2879,      2880
      1502,      2884,      2876,      2877,      2879
      1503,      2829,      2830,      2884,      2883
      1504,      2830,      2831,      2876,      2884
      1505,      2825,      2885,      2882,      2824
      1506,      2885,      2886,      2881,      2882
      1507,      2886,      2883,      2880,      2881
      1508,      2826,      2827,      2885,      2825
      1509,      2827,      2828,      2886,      2885
      1510,      2828,      2829,      2883,      2886
      1511,      2887,      2888,      2818,      2819
      1512,      2888,      2878,      2817,      2818
      1513,      2880,      2879,      2888,      2887
      1514,      2879,      2877,      2878,      2888
      1515,      2823,      2889,      2821,      2822
      1516,      2889,      2890,      2820,      2821
      1517,      2890,      2887,      2819,      2820
      1518,      2824,      2882,      2889,      2823
      1519,      2882,      2881,      2890,      2889
      1520,      2881,      2880,      2887,      2890
** ... 140 like lines cut
**HM_comp_by_property "SLAB_PROP"     3
*SOLID SECTION, ELSET=SLAB, MATERIAL=SLAB_MAT
**HM_comp_by_property "DIE_PROP"     3
*SOLID SECTION, ELSET=DIE, MATERIAL=DIE_MAT
*NSET, NSET=BCs
         1,        22,        23,        24,        25,        26,        27,        28,
        29,        30,        31,        32,        33,        34,        35,        36,
        37,        38,        39,        40,        41,        42,        43,        44,
        45,        46,        47,        48,        49,        50,        51,        52,
        53,        54,        55,        56,        57,        58,        59,        60,
        61,        62,        63,        64,        65,        66,        67,        68,
        69,        70,        71,        72,        73,        74,        75,        76,
        77,        78,        79,        80,        81
*NSET, NSET=Disp_nodes
      2782,      2783,      2784,      2785,      2786,      2787,      2788,      2789,
      2790,      2791,      2792,      2793,      2794,      2795,      2796,      2797,
      2798,      2799,      2800,      2801,      2802,      2803,      2804,      2805,
      2806,      2807,      2808,      2809,      2810,      2811,      2812,      2813,
      2814,      2815,      2816,      2817,      2818,      2819,      2820,      2821,
      2822,      2823,      2824,      2825,      2826,      2827,      2828,      2829,
      2830,      2831,      2832,      2833,      2834,      2835,      2836,      2837,
      2838,      2839,      2840,      2841,      2842,      2843,      2844,      2845,
      2846,      2847,      2848,      2849,      2850,      2851,      2852,      2853,
      2854,      2855,      2856,      2857,      2858,      2859,      2860,      2861,
      2862,      2863,      2864,      2865,      2866,      2867,      2868,      2869,
      2870,      2871,      2872,      2873,      2874,      2875,      2876,      2877,
      2878,      2879,      2880,      2881,      2882,      2883,      2884,      2885,
      2886,      2887,      2888,      2889,      2890,      2891,      2892,      2893,
      2894,      2895,      2896,      2897,      2898,      2899,      2900,      2901,
      2902,      2903,      2904,      2905,      2906,      2907,      2908,      2909,
      2910,      2911,      2912,      2913,      2914,      2915,      2916,      2917,
      2918,      2919,      2920,      2921,      2922,      2923,      2924,      2925,
      2926,      2927,      2928,      2929,      2930,      2931,      2932,      2933,
      2934,      2935,      2936,      2937,      2938,      2939,      2940,      2941,
** ... 6 like lines cut
*MATERIAL, NAME=DIE_MAT
*HYPERELASTIC,NEO HOOKE
1.9230769231E+02, 2.40E-03, 
*MATERIAL, NAME=SLAB_MAT
*HYPERELASTIC,NEO HOOKE
1.730769E-02, 26.667, 
*SURFACE INTERACTION, NAME = FRIC
*SURFACE BEHAVIOR, PRESSURE-OVERCLOSURE = HARD, PENALTY = LINEAR
100.0      ,0.0        ,1.0       
*FRICTION
0.3       ,0.0       ,0.0       ,0.0       
**HMNAME GROUPS          1 CP
*CONTACT PAIR, INTERACTION=FRIC, TYPE=SURFACE TO SURFACE
DIE_M,SLAB_S
*SURFACE, NAME = DIE_M, TYPE = ELEMENT
**HMNAME CONTACTSURF  M,       4
    1524, S1
    1548, S1
    1549, S1
    1550, S1
    1543, S1
    1544, S1
    1568, S1
    1569, S1
    1570, S1
    1563, S1
    1564, S1
    1588, S1
    1589, S1
    1590, S1
    1583, S1
    1584, S1
    1608, S1
    1609, S1
    1610, S1
    1603, S1
    1604, S1
    1628, S1
*SURFACE, NAME = SLAB_S, TYPE = ELEMENT
**HMNAME CONTACTSURF  S,       5
    3810, S3
    3808, S3
    3822, S3
    3820, S3
    3780, S3
    3784, S3
    3788, S3
    3960, S3
    3958, S3
    3972, S3
    3970, S3
    3920, S3
    3918, S3
    3932, S3
    3930, S3
    3210, S3
    3208, S3
    3222, S3
    3220, S3
    3174, S3
** ... 38 like lines cut
**HMNAME LOADSTEP          1 Vert_disp
*STEP, NAME = Vert_disp, NLGEOM = YES
Vert_disp
*STATIC
0.01      ,1.0       ,          ,1.0       
**HWNAME LOADCOL          1 BCs
**HWCOLOR LOADCOL          1     3
*BOUNDARY, FIXED
BCs,1,2,0.0
**HWNAME LOADCOL          2 Vert_disp
**HWCOLOR LOADCOL          2     4
*BOUNDARY
Disp_nodes,2, ,-0.075         
*CONTACT CONTROLS, AUTOMATIC TOLERANCES, STABILIZE = 0.001 
*NODE PRINT, NSET = BCs
RF,
*OUTPUT, FIELD, NUMBER INTERVAL = 10
*NODE OUTPUT, VARIABLE = PRESELECT
*ELEMENT OUTPUT, VARIABLE = PRESELECT
*CONTACT OUTPUT, VARIABLE = PRESELECT
*END STEP
**HMNAME LOADSTEP          2 Hor_disp
*STEP, INC =        10000, NAME = Hor_disp, NLGEOM = YES
Vert_disp
*STATIC
0.005     ,1.0       ,          ,1.0       
**HWNAME LOADCOL          3 BCs:1
**HWCOLOR LOADCOL          3     3
*BOUNDARY, FIXED
BCs,1,2,0.0
**HWNAME LOADCOL          4 Hor_disp
**HWCOLOR LOADCOL          4     3
*BOUNDARY
Disp_nodes,1, ,2.0            
*NODE PRINT, NSET = BCs
RF,
*OUTPUT, FIELD, NUMBER INTERVAL = 140
*NODE OUTPUT, VARIABLE = PRESELECT
*ELEMENT OUTPUT, VARIABLE = PRESELECT
*CONTACT OUTPUT, VARIABLE = PRESELECT
*END STEP
