**
** ABAQUS Input Deck Generated by HyperMesh Version  : 11.0.0.39
** Generated using HyperMesh-Abaqus Template Version : 11.0.0.39
**
**   Template:  ABAQUS/STANDARD 2D
**
*NODE
         1,  0.5            ,  4.163336342E-17
         2,  0.5            ,  0.5            
         3,  0.0417767376916,  0.4741135531582
         4,  0.1247750802539,  0.4697998543108
         5,  0.2068916480642,  0.4640044843626
         6,  0.0419104535922,  0.448447686548 
         7,  0.205858646859 ,  0.4289202070746
         8,  0.2456534532287,  0.4220561846608
         9,  0.0420705316439,  0.4229156608573
        10,  0.0837360951818,  0.4178589534584
        11,  0.1653212665934,  0.4035056373072
        12,  0.2051307142604,  0.3946411522069
        13,  0.244269826175 ,  0.384726578457 
        14,  0.0422577328486,  0.397874304453 
        15,  0.1249966428684,  0.3826940371624
        16,  0.1654001107992,  0.3730314193793
        17,  0.2046988334097,  0.3612668407366
        18,  0.2433435310287,  0.3484768022896
        19,  0.1253640845283,  0.3550115666052
        20,  0.2045426760651,  0.3288704160974
** ... 10289 like lines cut
**HWCOLOR COMP          1     4
*User element, nodes=3, type=U1, properties=3, coordinates=2, variables=7
1,2
*Element, type=U1, Elset=COMP
2,1750,2,1749
354,3072,354,3073
379,3153,379,3152	
*User element, nodes=4, type=U2, properties=3, coordinates=2, variables=7
1,2
*Element, type=U2, Elset=COMP
59,1972,1974,59,1973
126,6372,2215,126,2214
154,6176,2305,154,2306
239,5555,2643,239,2644
366,3112,366,3110,3111
754,2263,754,4023,2265
758,2269,758,4029,2271
2242,6232,134,2242,740
2281,764,2281,5952,147
2306,6176,154,2306,738
2939,318,2939,5736,1121
3101,363,3101,5410,1163
3107,365,3107,5861,1167
*User element, nodes=5, type=U3, properties=3, coordinates=2, variables=7
1,2
*Element, type=U3, Elset=COMP
1,5655,1748,1,1747,1746
55,1962,55,1960,6184,1961
56,1965,56,1964,6192,1963
57,1968,57,1966,6200,1967
58,1969,6457,58,1970,1971
60,1975,1977,60,6428,1976
61,1978,1980,61,6400,1979
62,1981,62,1983,6376,1982
69,2008,69,2009,6384,2010
70,2011,70,2013,6392,2012
71,2016,71,2014,6396,2015
72,2018,72,2017,6593,2019
73,2020,6553,73,2022,2021
74,2024,6513,74,2023,2025
75,2026,75,6515,2028,2027
76,2029,76,6519,2030,2031
77,2032,77,6523,2033,2034
78,2035,78,6527,2036,2037
79,2038,2040,79,6752,2039
80,2043,2042,80,6732,2041
** ... 370 like lines cut
*User element, nodes=6, type=U4, properties=3, coordinates=2, variables=7
1,2
*Element, type=U4, Elset=COMP
54,54,1959,1956,1957,1955,1958
110,110,2156,2154,2155,2153,6687
134,2243,6205,134,2241,6232,2242
140,2261,140,5975,2260,5980,2259
142,2267,142,5967,2266,5972,2265
144,2273,144,5959,2272,5964,2271
147,5948,2280,147,2282,5952,2281
158,158,2319,2321,2320,2322,5996
203,203,2500,2499,2501,6209,2502
261,261,2729,2731,2730,2732,5591
262,262,2734,2733,2735,2736,5627
263,263,2739,2738,2740,2737,5643
265,265,2745,2747,2748,5494,2746
267,267,2755,5661,2753,2756,2754
331,331,2986,2984,2985,2987,5611
333,333,2995,2994,2992,2993,5623
345,345,3040,3039,3041,3042,5647
346,346,3045,3044,3043,5466,3046
363,3103,363,5410,3101,5832,3102
365,3109,365,5861,3107,5888,3108
** ... 116 like lines cut
*User element, nodes=7, type=U5, properties=3, coordinates=2, variables=7
1,2
*Element, type=U5, Elset=COMP
3,3,1753,6370,1752,1754,1751,6404
4,4,1756,6378,1757,1758,1755,6412
5,5,1760,6386,1761,1762,1759,6420
6,6,1763,6398,1765,1766,1764,6432
7,7,1767,1770,1768,6421,1769,6443
8,8,1774,1771,1773,6425,1772,6447
9,9,1775,1778,1776,6433,1777,6455
10,10,1782,1779,1780,6437,1781,6459
11,11,1786,1785,1783,6445,1784,6467
12,12,1787,1788,1789,6449,1790,6471
13,13,1791,1792,1794,6453,1793,6475
14,14,1795,1796,1797,6461,1798,6483
15,15,1801,1802,1799,6469,1800,6491
16,16,1803,1804,1805,6473,1806,6495
17,17,1807,1808,1809,6477,1810,6499
18,18,1811,1812,1813,6481,1814,6503
19,19,1816,1818,1817,6283,1815,6497
20,20,1821,1822,1820,6339,1819,6505
21,21,1826,1825,1823,6517,1824,6531
22,22,1829,1827,1828,6521,1830,6535
** ... 6078 like lines cut
*User element, nodes=8, type=U6, properties=3, coordinates=2, variables=7
1,2
*Element, type=U6, Elset=COMP
152,152,2299,6690,2298,2297,6697,2300,6716
235,235,2629,6042,2627,2630,6075,2628,6357
383,5145,3169,383,3167,5140,3168,3166,5938
393,5193,3208,393,3209,5188,3207,5162,3206
438,438,3387,5399,3386,3388,5402,3389,5824
441,441,3399,5415,3398,3400,5418,3401,5840
442,442,3403,5814,3402,3404,5817,3405,5844
592,1916,6734,592,3742,6737,1911,3743,6756
616,2105,616,6546,3790,1950,6754,3791,6757
712,2491,712,6190,3949,2110,6191,3950,6196
731,731,2204,5294,3988,2962,5295,3987,5673
779,2321,5958,779,4066,2328,5991,4067,5992
782,2336,782,5982,4072,2326,4073,5988,5989
826,2631,6074,826,4160,6077,2418,4161,6108
833,2436,6094,833,4174,6097,2433,4175,6128
834,2460,834,6122,4176,2434,6123,4177,6129
835,2440,6098,835,4178,6101,2437,4179,6132
969,969,4445,5404,3074,2710,5407,4444,5537
988,988,4483,5602,2981,2733,5605,4482,5608
989,989,2992,5604,4485,2734,5605,5622,4484
** ... 109 like lines cut
*UEL Property, Elset=COMP
1.,7.031, 0.40625, 0.4
**HWCOLOR COMP          1     3
*ELEMENT,TYPE=CPE3,ELSET=Inclusion
     50001,     52729,     50735,     51889
     50002,     52729,     51889,     52829
     50003,     50694,     52729,     52829
     50004,     50694,     52829,     51850
     50005,     51889,     52828,     50946
     50006,     51889,     50946,     50253
     50007,     52828,     50944,     50001
     50008,     52828,     50001,     50946
     50009,     51886,     50251,     50944
     50010,     51886,     50944,     52828
     50011,     50735,     51886,     52828
     50012,     50735,     52828,     51889
     50013,     52357,     52827,     51886
     50014,     52357,     51886,     50735
     50015,     52827,     51401,     50251
     50016,     52827,     50251,     51886
     50017,     51404,     50120,     51401
     50018,     51404,     51401,     52827
     50019,     50496,     51404,     52827
     50020,     50496,     52827,     52357
** ... 7084 like lines cut
**HWCOLOR COMP          2     4
*ELEMENT,TYPE=CPE3,ELSET=MATRIX
     57105,      4925,      1507,      5232
     57106,      1507,      4918,      5232
     57107,      1233,      4925,      3245
     57108,      4925,      5232,      3245
     57109,      3267,      5231,      1231
     57110,      5231,      4921,      1231
     57111,      5231,      3914,      4921
     57112,      3914,      1508,      4921
     57113,      3266,       694,      5231
     57114,       694,      3914,      5231
     57115,       408,      3266,      3267
     57116,      3266,      5231,      3267
     57117,      3914,      5230,      3909
     57118,      3914,      3909,      1508
     57119,      5230,      2077,       692
     57120,      5230,       692,      3909
     57121,      2079,        90,      2077
     57122,      2079,      2077,      5230
     57123,       694,      2079,      5230
     57124,       694,      5230,      3914
** ... 13100 like lines cut
**HM_comp_by_property "MATRIX_PROP"     3
*SOLID SECTION, ELSET=MATRIX, MATERIAL=Matrix_mat
**HM_comp_by_property "Inclusion_PROP"     3
*SOLID SECTION, ELSET=Inclusion, MATERIAL=Inclusion_mat
*NSET, NSET=BCs_Y
       239,       299,       306,       307,       308,       309,       310,       311,
       328,       353,       354,       358,       375,       919,      1088,      1089,
      1101,      1102,      1103,      1104,      1105,      1108,      1110,      1111,
      1112,      2643,      2876,      2877,      2903,      2904,      2906,      2907,
      2908,      2909,      2911,      2913,      2915,      2916,      2917,      2919,
      2973,      2974,      3069,      3070,      3073,      3085,      3086,      3139,
      3140,
*NSET, NSET=BCs_X
        55,        56,        57,        58,        59,        60,        61,        98,
       109,     50001,       126,       129,       151,       154,     50121,     50122,
     50123,     50124,     50125,     50126,     50127,     50128,     50129,     50130,
     50131,       292,       293,       294,       295,       296,       297,       298,
       327,       338,       354,       357,       376,       379,     50239,     50240,
     50241,     50242,     50243,     50244,     50245,     50246,     50247,     50248,
     50249,       623,       624,       626,       627,       629,       630,       632,
       633,       634,       635,       636,     50252,     50253,       733,     50285,
     50497,     50498,     50499,     50500,     50501,     50502,     50503,     50504,
     50505,     50506,      1074,      1075,      1077,      1078,      1080,      1081,
      1083,      1084,      1085,      1086,      1087,      1156,     50535,     50712,
     50713,     50714,     50715,     50716,     50717,     50718,     50719,     50720,
     50721,      1960,      1961,      1963,      1964,      1966,      1967,      1970,
      1971,      1973,      1974,      1976,      1977,      1979,      1980,      2108,
      2109,      2150,      2151,     50945,     50946,      2214,      2224,      2225,
      2294,      2295,      2305,     50993,     51405,     51407,     51409,     51410,
     51412,     51413,     51415,     51416,     51418,     51419,     51421,     51422,
     51424,     51425,     51427,     51428,     51430,     51431,     51433,     51434,
     51435,     51437,      2854,      2855,      2857,      2858,      2860,      2861,
      2864,      2865,      2867,      2868,      2870,      2871,      2873,      2874,
** ... 5 like lines cut
*NSET, NSET=Disp_nodes
         2,        62,        69,        70,        71,        72,        73,        74,
        99,       125,       126,       130,       150,       467,       637,       638,
       650,       651,       652,       653,       654,       657,       659,       660,
       661,      1749,      1982,      1983,      2009,      2010,      2012,      2013,
      2014,      2015,      2017,      2019,      2021,      2022,      2023,      2025,
      2111,      2112,      2211,      2212,      2215,      2227,      2228,      2292,
      2293,
*NSET, NSET=A1_nodes
         1,         2,         3,         4,         5,         6,         7,         8,
         9,        10,        11,        12,        13,        14,        15,        16,
        17,        18,        19,        20,        21,        22,        23,        24,
        25,        26,        27,        28,        29,        30,        31,        32,
        33,        34,        35,        36,        37,        38,        39,        40,
        41,        42,        43,        44,        45,        46,        47,        48,
        49,        50,        51,        52,        53,        54,        55,        56,
        57,        58,        59,        60,        61,        62,        63,        64,
        65,        66,        67,        68,        69,        70,        71,        72,
        73,        74,        75,        76,        77,        78,        79,        80,
        81,        82,        83,        84,        85,        86,        87,        88,
        89,        90,        91,        92,        93,        94,        95,        96,
        97,        98,        99,       100,       101,       102,       103,       104,
       105,       106,       107,       108,       109,       110,       111,       112,
       113,       114,     50001,       115,       116,       117,       118,       119,
       120,       121,       122,       123,       124,       125,       126,       127,
       128,       129,       130,       131,       132,       133,       134,       135,
       136,       137,       138,       139,       140,       141,       142,       143,
       144,       145,       146,       147,       148,       149,       150,       151,
       152,       153,       154,       155,       156,       157,       158,       159,
** ... 66 like lines cut
*NSET, NSET=A2_nodes
         1,         2,         3,         4,         5,         6,         7,         8,
         9,        10,        11,        12,        13,        14,        15,        16,
        17,        18,        19,        20,        21,        22,        23,        24,
        25,        26,        27,        28,        29,        30,        31,        32,
        33,        34,        35,        36,        37,        38,        39,        40,
        41,        42,        43,        44,        45,        46,        47,        48,
        49,        50,        51,        52,        53,        54,        55,        56,
        57,        58,        59,        60,        61,        62,        63,        64,
        65,        66,        67,        68,        69,        70,        71,        72,
        73,        74,        75,        76,        77,        78,        79,        80,
        81,        82,        83,        84,        85,        86,        87,        88,
        89,        90,        91,        92,        93,        94,        95,        96,
        97,        98,        99,       100,       101,       102,       103,       104,
       105,       106,       107,       108,       109,       110,       111,       112,
       113,       114,     50001,       115,       116,       117,       118,       119,
       120,       121,       122,       123,       124,       125,       126,       127,
       128,       129,       130,       131,       132,       133,       134,       135,
       136,       137,       138,       139,       140,       141,       142,       143,
       144,       145,       146,       147,       148,       149,       150,       151,
       152,       153,       154,       155,       156,       157,       158,       159,
** ... 309 like lines cut
*NSET, NSET=A3_nodes
         1,         2,         3,         4,         5,         6,         7,         8,
         9,        10,        11,        12,        13,        14,        15,        16,
        17,        18,        19,        20,        21,        22,        23,        24,
        25,        26,        27,        28,        29,        30,        31,        32,
        33,        34,        35,        36,        37,        38,        39,        40,
        41,        42,        43,        44,        45,        46,        47,        48,
        49,        50,        51,        52,        53,        54,        55,        56,
        57,        58,        59,        60,        61,        62,        63,        64,
        65,        66,        67,        68,        69,        70,        71,        72,
        73,        74,        75,        76,        77,        78,        79,        80,
        81,        82,        83,        84,        85,        86,        87,        88,
        89,        90,        91,        92,        93,        94,        95,        96,
        97,        98,        99,       100,       101,       102,       103,       104,
       105,       106,       107,       108,       109,       110,       111,       112,
       113,       114,     50001,       115,       116,       117,       118,       119,
       120,       121,       122,       123,       124,       125,       126,       127,
       128,       129,       130,       131,       132,       133,       134,       135,
       136,       137,       138,       139,       140,       141,       142,       143,
       144,       145,       146,       147,       148,       149,       150,       151,
       152,       153,       154,       155,       156,       157,       158,       159,
** ... 1269 like lines cut
*MATERIAL, NAME=Inclusion_mat
*HYPERELASTIC,NEO HOOKE
125.0, 0.0016, 
*MATERIAL, NAME=Matrix_mat
*HYPERELASTIC,NEO HOOKE
0.2, 1.0, 
**HMNAME LOADSTEP          1 Disp_load
*STEP, NAME = Disp_load, NLGEOM = YES
Disp_load
*STATIC
**HWNAME LOADCOL          1 BCs
**HWCOLOR LOADCOL          1     3
*BOUNDARY
BCs_Y,2, ,0.0
BCs_X,1, ,0.0
Disp_nodes,2, ,-0.15          
*NODE PRINT, NSET = A3_nodes
U,
*OUTPUT, FIELD, NUMBER INTERVAL = 5
*NODE OUTPUT, VARIABLE = PRESELECT
*ELEMENT OUTPUT, VARIABLE = PRESELECT
*END STEP
