**
** ABAQUS Input Deck Generated by HyperMesh Version  : 11.0.0.39
** Generated using HyperMesh-Abaqus Template Version : 11.0.0.39
**
**   Template:  ABAQUS/STANDARD 2D
**
*NODE
         1,  0.0580704438714,  0.4035787935528
         2,  0.05830308619  ,  0.430744664371 
         3,  0.0577277793521,  0.4584520047775
         4,  0.0573614129057,  0.4860014728457
         5,  0.0571859423654,  0.5133970225534
         6,  0.0569810778809,  0.5408343858455
         7,  0.0574211818045,  0.5680682528148
         8,  0.0595403413189,  0.5954343749458
         9,  0.4539509561765,  0.3858464668712
        10,  0.4737589369773,  0.375056006482 
        11,  0.4951276830313,  0.3631200661641
        12,  0.51780636308  ,  0.3472673243448
        13,  0.2372149517312,  0.5349805495486
        14,  0.2582928623169,  0.5184497021558
        15,  0.2758052346729,  0.4992986556547
        16,  0.2930350492008,  0.4765718575185
        17,  0.0752083367051,  0.3471833160074
        18,  0.0720829496562,  0.3757529247452
        19,  0.0735992432459,  0.402344631676 
        20,  0.0747393080776,  0.42894953972  
** ... 6767 like lines cut
**HWCOLOR COMP          1     4
*User element, nodes=3, type=U1, properties=3, coordinates=2, variables=7
1,2
*Element, type=U1, Elset=COMP
1420,1329,1420,1368
2046,1930,2046,2045
2719,2718,2719,2720	
*User element, nodes=4, type=U2, properties=3, coordinates=2, variables=7
1,2
*Element, type=U2, Elset=COMP
242,604,242,670,664
248,131,248,669,670
263,264,263,663,1605
674,655,674,250,251
703,621,703,296,297
712,576,712,305,306
979,980,979,951,978
1003,864,1003,1001,1004
1045,839,1045,1044,1046
1048,887,1048,1047,1049
1053,891,1053,1052,1054
1340,1290,1340,1339,1341
1344,1293,1344,1343,1345
1371,1565,1371,1370,1372
1392,1261,1392,1391,1393
1399,1268,1399,1398,1400
1577,1541,1577,1576,1578
1583,1133,1583,1592,1582
1904,316,1904,236,315
1977,1877,1977,1976,1979
** ... 47 like lines cut
*User element, nodes=5, type=U3, properties=3, coordinates=2, variables=7
1,2
*Element, type=U3, Elset=COMP
243,605,243,126,664,665
244,606,244,40,665,666
246,608,246,667,130,668
247,609,247,668,539,669
249,913,249,683,232,673
250,912,250,673,655,674
251,233,251,655,674,1132
252,657,252,234,1132,1131
253,212,253,223,1133,675
254,213,254,636,675,676
255,214,255,637,676,1134
256,215,256,638,1134,677
257,216,257,639,677,678
258,217,258,640,678,679
259,642,259,218,679,680
260,219,260,656,680,681
261,220,261,643,681,682
262,221,262,644,682,1390
264,672,264,240,263,663
268,688,268,613,645,687
** ... 630 like lines cut
*User element, nodes=6, type=U4, properties=3, coordinates=2, variables=7
1,2
*Element, type=U4, Elset=COMP
5,568,5,23,569,582,99
9,527,9,565,53,564,124
41,540,41,631,204,1585,1584
71,481,71,509,510,527,54
74,479,74,502,506,507,532
89,573,89,18,574,587,109
92,498,92,83,229,576,577
125,604,125,169,44,131,670
145,624,145,560,623,275,695
147,626,147,558,625,277,697
162,442,162,157,446,447,286
167,161,167,283,284,484,126
168,160,168,169,445,283,604
173,164,173,450,461,487,462
181,2209,181,470,469,184,472
192,476,481,192,480,509,72
193,188,193,481,477,482,510
197,486,197,190,485,84,496
236,241,236,1702,316,1904,315
245,607,245,128,666,129,667
** ... 530 like lines cut
*User element, nodes=7, type=U5, properties=3, coordinates=2, variables=7
1,2
*Element, type=U5, Elset=COMP
1,572,1,19,573,555,586,108
2,571,2,553,20,572,585,107
3,570,3,552,21,571,584,106
4,569,4,551,22,570,583,105
6,567,6,24,568,550,581,98
7,566,7,25,567,549,580,97
8,206,8,26,566,548,633,96
10,528,10,564,52,563,600,602
11,529,11,563,51,562,599,121
13,560,13,170,460,520,623,144
14,559,14,459,1236,560,146,624
15,558,15,458,287,559,625,146
16,557,16,457,288,558,138,626
17,608,17,540,129,556,90,575
18,607,18,556,555,573,89,574
19,554,19,606,128,555,572,1
20,541,20,554,32,553,2,572
21,542,21,553,31,552,3,571
22,543,22,552,30,551,4,570
24,545,24,550,28,549,567,6
** ... 3850 like lines cut
*User element, nodes=8, type=U6, properties=3, coordinates=2, variables=7
1,2
*Element, type=U6, Elset=COMP
12,530,12,51,562,91,237,659,238
23,544,23,551,29,550,568,5,569
28,518,28,545,62,546,549,24,25
44,125,44,169,451,37,538,55,131
47,534,47,505,140,618,533,912,232
49,506,49,561,531,532,654,240,231
62,519,62,518,546,28,2207,61,27
77,494,77,504,35,503,495,45,535
83,198,83,486,497,498,92,577,93
93,577,93,83,578,497,651,227,650
124,602,124,564,9,603,565,224,671
126,484,126,167,283,604,605,664,243
143,54,565,143,526,603,647,704,297
146,625,146,15,559,624,14,276,696
156,441,156,2145,2144,440,445,160,161
159,444,159,2151,2150,443,2149,448,164
161,441,161,156,445,446,167,283,284
164,444,164,159,448,449,173,450,461
169,155,169,451,160,168,604,125,44
172,172,461,449,165,59,515,66,522
** ... 539 like lines cut
*User element, nodes=9, type=U7, properties=3, coordinates=2, variables=7
1,2
*Element, type=U7, Elset=COMP
131,125,131,44,538,539,42,248,669,670
321,310,321,715,719,325,320,721,324,720
604,126,604,283,168,125,169,242,670,664
608,130,608,203,631,17,540,129,246,667
741,351,741,346,1000,387,867,352,742,378
794,391,794,781,400,308,401,801,404,405
864,737,864,1223,379,344,865,1003,1001,1004
1378,877,1378,876,1379,878,1377,1100,1118,1269
2004,1492,2004,1281,2006,1367,2005,1902,1982,1903
2151,2151,2150,2204,2205,444,2203,2169,2188,159
2200,2192,2200,2202,2201,2176,2177,2174,2175,2173
2573,2561,2560,2573,2572,2545,2544,2625,2658,2659
2612,2401,2309,2612,2310,2311,2402,2610,2611,2613
2877,2876,2085,2877,2084,2083,2878,3802,3854,3894
3669,3847,3657,3669,3658,3659,3670,3846,3848,3851
3683,2874,2087,3683,2086,2085,2876,3682,3893,3920
3718,3326,3325,3718,3717,3493,3719,3826,3827,3828
3834,3833,3712,3834,3711,3710,3835,3863,3864,3865
5199,5194,5193,5199,5198,5195,5200,5205,5206,5207
5253,4890,5151,5253,5252,4891,5254,5278,5279,5287
5327,5225,5224,5327,5326,5226,5328,5353,5354,5329
5524,5617,5366,5524,5365,5364,5598,5587,5586,5599
*UEL Property, Elset=COMP
1.,7.031, 0.40625, 0.4
**HWCOLOR COMP          2     3
*ELEMENT,TYPE=CPE3,ELSET=Inclusions
     12447,     12762,      2754,      2753
     12452,     12758,      2749,      2776
     12810,      4047,      4046,     13103
     12827,      4048,      4047,     13103
     12963,     13229,     13204,     13218
     13082,     13332,     13328,     13327
     13140,      4158,      4160,      4159
     13153,      4153,      4180,      4154
     13270,     13479,     13475,     13476
     13312,     13513,      1918,      1911
     13329,     13516,     13524,     13515
     13544,     13683,     13708,     13652
     13548,     13711,       664,       243
     13567,     13721,     13723,     13722
     13571,     13728,       264,       672
     13582,       250,       674,     13738
     13637,       313,       710,     13775
     13642,       711,       315,     13782
**HWCOLOR COMP          1     4
*ELEMENT,TYPE=CPE3,ELSET=Matrix
      7025,      2196,      2195,      2202
      7369,       540,        41,       631
      7673,       311,       309,      1912
      7843,      1362,       808,       787
      8121,      1062,      1057,      1084
      8438,      1497,      1427,      1498
     13649,      2329,      2259,      2330
     13650,      2259,      2260,      2330
     13651,      2328,      2258,      2329
     13652,      2258,      2259,      2329
     13653,      2327,      2257,      2328
     13654,      2257,      2258,      2328
     13655,      2326,      2256,      2327
     13656,      2256,      2257,      2327
     13657,      2325,      2255,      2326
     13658,      2255,      2256,      2326
     13659,      2324,      2254,      2325
     13660,      2254,      2255,      2325
     13661,      2323,      2253,      2324
     13662,      2253,      2254,      2324
** ... 10674 like lines cut
**HWCOLOR COMP          2     3
*ELEMENT,TYPE=CPE4,ELSET=Inclusions
     12351,      2829,      2828,     12843,     12844
     12352,     12843,      2828,      2827,     12842
     12353,     12842,      2827,      2826,     12841
     12354,     12841,      2826,      2825,     12840
     12355,     12840,      2825,      2824,     12839
     12356,     12839,      2824,      2823,     12838
     12357,     12838,      2823,      2852,     12837
     12358,     12837,      2852,      2851,     12836
     12359,     12836,      2851,      2850,     12835
     12360,     12835,      2850,      2849,     12834
     12361,     12834,      2849,      2848,     12833
     12362,     12833,      2848,      2847,     12832
     12363,     12832,      2847,      2846,     12831
     12364,     12831,      2846,      2845,     12830
     12365,     12830,      2845,      2844,     12829
     12366,     12829,      2844,      2843,     12828
     12367,     12828,      2843,      2842,     12827
     12368,     12827,      2842,      2841,     12826
     12369,     12826,      2841,      2840,     12825
     12370,     12825,      2840,      2839,     12824
** ... 1260 like lines cut
**HM_comp_by_property "Matrix_prop"     3
*SOLID SECTION, ELSET=Matrix, MATERIAL=Matrix
**HM_comp_by_property "Inclusion_prop"     4
*SOLID SECTION, ELSET=Inclusions, MATERIAL=Inclusion
*NSET, NSET=BCs
      1329,      1330,      1331,      1332,      1333,      1334,      1335,      1336,
      1338,      1339,      1340,      1341,      1342,      1343,      1344,      1345,
      1346,      1347,      1348,      1349,      1350,      1351,      1352,      1354,
      1355,      1356,      1357,      1358,      1359,      1360,      1361,      1363,
      1364,      1365,      1366,      1420,      2014,      2015,      2016,      2017,
      2018,      2019,      2020,      2021,      2022,      2023,      2024,      2025,
      2026,      2027,      2028,      2029,      2030,      2031,      2032,      2033,
      2034,      2035,      2036,      2037,      2038,      2039,      2040,      2041,
      2042,      2043,      2044,      2045,      2046
*NSET, NSET=Disp_loads
      2230,      2231,      2232,      2233,      2234,      2235,      2236,      2237,
      2238,      2239,      2240,      2241,      2242,      2243,      2244,      2245,
      2246,      2247,      2248,      2719,      2720,      2721,      2722,      2723,
      2724,      2725,      2726,      2727,      2728,      2729,      2777,      2778,
      2779,      2780,      2781,      2782,      2783,      2784,      2785,      2786,
      2787,      2788,      2789,      2790,      2791,      2792,      2793,      2794,
      2795,      2796,      2797,      2798,      2799,      2800,      2801,      2802,
      2803,      2804,      2805,      2806,      2807,      2808,      2809,      2810,
      2811,      2812,      2813,      2814,      2815
*MATERIAL, NAME=Inclusion
*HYPERELASTIC,NEO HOOKE
125, 0.0016, 
*MATERIAL, NAME=Matrix
*HYPERELASTIC,NEO HOOKE
0.2, 1.0, 
**HMNAME LOADSTEP          1 Disp_load
*STEP, INC =         1000, NAME = Disp_load, NLGEOM = YES
Disp_load
*STATIC
1.0000E-03,1.0       ,          ,          
**HWNAME LOADCOL          1 BCs
**HWCOLOR LOADCOL          1     3
*BOUNDARY
BCs,2, ,0.0
Disp_loads,2, ,-0.15          
*OUTPUT, FIELD, VARIABLE = PRESELECT, TIME INTERVAL = 50.0
*NODE OUTPUT, VARIABLE = PRESELECT
*ELEMENT OUTPUT, VARIABLE = PRESELECT
*END STEP
