**
** ABAQUS Input Deck Generated by HyperMesh Version  : 11.0.0.39
** Generated using HyperMesh-Abaqus Template Version : 11.0.0.39
**
**   Template:  ABAQUS/STANDARD 2D
**
*NODE
         1,  1.0            ,  1.0            
         2,  9.0            ,  1.0            
         3,  9.0            ,  5.0            
         4,  1.0            ,  5.0            
         5,  5.0            ,  1.0            
         6,  1.0            ,  3.0            
         7,  9.0            ,  3.0            
         8,  5.0            ,  5.0            
         9,  5.0            ,  3.0            
        10,  3.0            ,  1.0            
        11,  1.0            ,  2.0            
        12,  7.0            ,  1.0            
        13,  9.0            ,  2.0            
        14,  9.0            ,  4.0            
        15,  7.0            ,  5.0            
        16,  1.0            ,  4.0            
        17,  3.0            ,  5.0            
        18,  5.0            ,  2.0            
        19,  3.0            ,  3.0            
        20,  7.0            ,  3.0            
** ... 291 like lines cut
**HWCOLOR COMP          1     4
*User element, nodes=3, type=U1, properties=3, coordinates=2, variables=7
1,2
*Element, type=U1, Elset=COMP
1,1,82,83
3,86,3,87	
*User element, nodes=4, type=U2, properties=3, coordinates=2, variables=7
1,2
*Element, type=U2, Elset=COMP
2,84,2,247,85
4,88,289,4,89
*User element, nodes=5, type=U3, properties=3, coordinates=2, variables=7
1,2
*Element, type=U3, Elset=COMP
5,90,5,231,92,91
6,93,241,6,95,94
7,96,7,98,263,97
8,101,273,8,99,100
10,106,10,228,108,107
11,109,226,11,111,110
12,113,12,243,114,112
13,115,13,117,251,116
14,119,14,120,267,118
15,123,269,15,121,122
16,125,277,16,126,124
17,129,285,17,128,127
26,82,26,229,162,106
27,83,229,27,163,109
28,112,28,246,164,84
29,85,29,165,248,115
30,118,30,166,268,86
31,167,268,31,87,121
32,124,286,32,168,88
33,169,288,33,127,89
** ... 40 like lines cut
*User element, nodes=7, type=U5, properties=3, coordinates=2, variables=7
1,2
*Element, type=U5, Elset=COMP
9,102,9,103,257,104,105,279
18,130,18,132,235,131,245,133
19,136,237,19,135,134,275,137
20,140,253,20,138,139,259,141
21,143,261,21,144,142,145,283
22,146,22,147,233,148,149,239
23,150,23,152,249,151,153,255
24,156,24,157,265,154,155,271
25,160,25,158,281,161,159,287
36,92,36,172,232,130,242,173
39,176,240,39,134,95,274,177
42,180,252,42,98,138,262,181
45,142,270,45,184,101,185,284
46,131,46,186,236,102,254,187
47,188,236,47,103,135,278,189
48,190,256,48,139,104,258,191
49,105,258,49,192,143,193,280
50,108,50,194,227,146,230,195
51,196,227,51,147,111,238,197
52,114,52,198,244,150,246,199
** ... 205 like lines cut
*UEL Property, Elset=COMP
1.,10000000.0       ,0.3, 0.7071
**HWCOLOR COMP          1     4
*ELEMENT,TYPE=CPS3,ELSET=Elastic_body
       401,        83,       229,        27
       402,       229,       163,        27
       403,       229,       162,       163
       404,       162,        66,       163
       405,        82,        26,       229
       406,        26,       162,       229
       407,         1,        82,        83
       408,        82,       229,        83
       409,       162,       228,        66
       410,       228,       194,        66
       411,       228,       108,       194
       412,       108,        50,       194
       413,       106,        10,       228
       414,        10,       108,       228
       415,        26,       106,       162
       416,       106,       228,       162
       417,       196,       227,        51
       418,       227,       147,        51
       419,       227,       146,       147
       420,       146,        22,       147
** ... 492 like lines cut
**HWCOLOR COMP          2     3
*ELEMENT,TYPE=CPS4,ELSET=Rigid_body
       913,       514,       513,       506,       505
       914,       513,       514,       511,       512
       915,       515,       516,       507,       508
       916,       516,       515,       505,       506
       917,       517,       518,       510,       509
       918,       518,       517,       502,       503
       919,       519,       520,       509,       510
       920,       520,       519,       508,       507
       921,       521,       522,       512,       511
       922,       522,       521,       504,       501
**HM_comp_by_property "PROP"     3
*SOLID SECTION, ELSET=Elastic_body, MATERIAL=MAT
**HM_comp_by_property "PROP"     3
*SOLID SECTION, ELSET=Rigid_body, MATERIAL=MAT1
**HM_Rigid_Body "PROP_Rigid"          3
*RIGID BODY, REF NODE =        516, ELSET = Rigid_body
*NSET, NSET=BCs
       501,       502,       506,       507,       509,       512,       513,       516,
       517,       520,       522
*NSET, NSET=Symm_BCs
         5,         8,         9,        18,        21,        36,        45,        46,
        49,        92,       101,       102,       105,       130,       131,       142,
       143,       515
*MATERIAL, NAME=MAT
*HYPERELASTIC,NEO HOOKE,MODULI = INSTANTANEOUS
9.62E+05, 4.80E-07, 
*MATERIAL, NAME=MAT1
*ELASTIC, TYPE = ISOTROPIC
1.0000E+60,0.3      ,0.0       
*SURFACE INTERACTION, NAME = Friction
*FRICTION, LAGRANGE
0.0       ,0.0       ,0.0       ,0.0       
**HMNAME GROUPS          1 CP
*CONTACT PAIR, INTERACTION=Friction, ADJUST=0.001, TYPE=SURFACE TO SURFACE, SMALL SLIDING
S, M
*SURFACE, NAME = M, TYPE = ELEMENT
**HMNAME CONTACTSURF  M,       3
     917, S2
     919, S4
     915, S4
     920, S2
     913, S4
     916, S2
     914, S2
     921, S4
*SURFACE, NAME = S, TYPE = ELEMENT
**HMNAME CONTACTSURF  S,       4
     407, S1
     571, S1
     443, S1
     529, S1
     413, S1
     433, S1
     561, S1
     539, S1
     405, S1
     415, S1
     569, S1
     563, S1
     441, S1
     435, S1
     531, S1
     537, S1
**HMNAME LOADSTEP          1 Static
*STEP, NAME = Static, NLGEOM = YES
Static
*STATIC
1.0       ,1.0       ,1.0000E-05,1.0       
**HWNAME LOADCOL          1 BCs
**HWCOLOR LOADCOL          1     4
*BOUNDARY
BCs,1,2,0.0
Symm_BCs,1, ,0.0
**HWNAME LOADCOL          2 Load
**HWCOLOR LOADCOL          2     3
*CLOAD
       128,2,-470588.235    
       127,2,-470588.235    
       122,2,-470588.235    
       121,2,-470588.235    
       100,2,-470588.235    
        99,2,-470588.235    
        89,2,-470588.235    
        87,2,-470588.235    
        44,2,-470588.235    
        43,2,-470588.235    
        33,2,-470588.235    
        31,2,-470588.235    
        17,2,-470588.235    
        15,2,-470588.235    
         8,2,-470588.235    
         4,2,-470588.235    
         3,2,-470588.235    
*OUTPUT, FIELD
*NODE OUTPUT
U,
RF,
CF,
TF,
*ELEMENT OUTPUT
S,
E,
EP,
PE,
*CONTACT OUTPUT
CSTRESS,
CDISP,
*END STEP
