**
** ABAQUS Input Deck Generated by HyperMesh Version  : 11.0.0.39
** Generated using HyperMesh-Abaqus Template Version : 11.0.0.39
**
**   Template:  ABAQUS/STANDARD 2D
**
*NODE
         1,  1.0            ,  1.0            
         2,  9.0            ,  1.0            
         3,  9.0            ,  5.0            
         4,  1.0            ,  5.0            
         5,  5.0            ,  1.0            
         6,  1.0            ,  3.0            
         7,  9.0            ,  3.0            
         8,  5.0            ,  5.0            
         9,  5.0            ,  3.0            
        10,  3.0            ,  1.0            
        11,  1.0            ,  2.0            
        12,  7.0            ,  1.0            
        13,  9.0            ,  2.0            
        14,  9.0            ,  4.0            
        15,  7.0            ,  5.0            
        16,  1.0            ,  4.0            
        17,  3.0            ,  5.0            
        18,  5.0            ,  2.0            
        19,  3.0            ,  3.0            
        20,  7.0            ,  3.0            
** ... 1091 like lines cut
**HWCOLOR COMP          1     4
*User element, nodes=3, type=U1, properties=3, coordinates=2, variables=7
1,2
*Element, type=U1, Elset=COMP
1,1,290,291
3,294,3,295	
*User element, nodes=4, type=U2, properties=3, coordinates=2, variables=7
1,2
*Element, type=U2, Elset=COMP
2,292,2,919,293
4,296,1089,4,297
*User element, nodes=5, type=U3, properties=3, coordinates=2, variables=7
1,2
*Element, type=U3, Elset=COMP
5,5,300,855,298,299
6,301,897,6,303,302
7,304,7,306,983,305
8,309,1025,8,307,308
10,10,315,316,840,314
11,846,319,11,317,318
12,321,12,903,322,320
13,323,13,325,935,324
14,327,14,328,999,326
15,331,1009,15,329,330
16,333,1041,16,334,332
17,337,1073,17,336,335
26,26,371,372,836,370
27,27,375,374,834,373
28,377,28,915,378,376
29,379,29,381,923,380
30,383,30,384,1003,382
31,387,1005,31,385,386
32,389,1077,32,390,388
33,393,1085,33,392,391
** ... 104 like lines cut
*User element, nodes=7, type=U5, properties=3, coordinates=2, variables=7
1,2
*Element, type=U5, Elset=COMP
9,310,9,311,961,312,313,1047
18,338,18,340,871,339,913,341
19,344,881,19,343,342,1031,345
20,348,945,20,346,347,967,349
21,351,977,21,352,350,353,1063
22,865,356,22,354,355,357,887
23,358,23,360,929,359,361,951
24,364,24,365,993,362,363,1015
25,368,25,366,1057,369,367,1079
36,36,401,859,402,400,901,403
39,412,893,39,411,410,1027,413
42,422,941,42,420,421,979,423
45,431,1013,45,432,430,433,1067
46,435,46,436,875,434,949,437
47,440,877,47,438,439,1043,441
48,444,957,48,443,442,963,445
49,446,965,49,448,447,449,1051
50,50,453,451,853,450,844,452
51,456,51,454,842,455,883,457
52,458,52,460,907,459,917,461
** ... 941 like lines cut
*UEL Property, Elset=COMP
1.0,1.0E+08,0.35      ,0.7071
**HWCOLOR COMP          1     4
*ELEMENT,TYPE=CPE3,ELSET=Elastic_body
      5001,       865,       356,        22
      5002,       354,       865,        22
      5003,       678,       148,       356
      5004,       865,       678,       356
      5005,       233,       678,       865
      5006,       675,       233,       865
      5007,       675,       865,       354
      5008,       146,       675,       354
      5009,       864,       483,       148
      5010,       678,       864,       148
      5011,       484,        58,       483
      5012,       864,       484,       483
      5013,       210,       484,       864
      5014,       803,       210,       864
      5015,       803,       864,       678
      5016,       233,       803,       678
      5017,       863,       803,       233
      5018,       773,       863,       233
      5019,       521,       210,       803
      5020,       863,       521,       803
** ... 2028 like lines cut
**HWCOLOR COMP          2     3
*ELEMENT,TYPE=CPS4,ELSET=Rigid_body
      1201,      5303,      5302,      5295,      5294
      1202,      5302,      5303,      5300,      5301
      1203,      5304,      5305,      5296,      5297
      1204,      5305,      5304,      5294,      5295
      1205,      5306,      5307,      5299,      5298
      1206,      5307,      5306,      5002,      5003
      1207,      5308,      5309,      5298,      5299
      1208,      5309,      5308,      5297,      5296
      1209,      5310,      5311,      5301,      5300
      1210,      5311,      5310,      5004,      5001
**HM_comp_by_property "PROP"     3
*SOLID SECTION, ELSET=Elastic_body, MATERIAL=MAT
**HM_comp_by_property "PROP1"     3
*SOLID SECTION, ELSET=Rigid_body, MATERIAL=MAT1
*NSET, NSET=BCs
      5001,      5002,      5295,      5296,      5298,      5301,      5302,      5305,
      5306,      5309,      5311
*NSET, NSET=Symm_BCs
         5,         8,         9,        18,        21,        36,        45,        46,
        49,        92,       101,       102,       105,       130,       131,       142,
       143,       300,       309,       310,       313,       338,       339,       350,
       351,       400,       401,       430,       431,       434,       435,       446,
       447,      5304,      5305
*MATERIAL, NAME=MAT
*ELASTIC, TYPE = ISOTROPIC
5.0E+07,0.35      ,0.0      
*MATERIAL, NAME=MAT1
*ELASTIC, TYPE = ISOTROPIC
1.0000E+60,0.35      ,0.0       
*SURFACE INTERACTION, NAME = Friction
1.0,
*FRICTION, LAGRANGE
0.0       ,0.0       ,0.0       ,0.0       
**HMNAME GROUPS          1 CP
*CONTACT PAIR, INTERACTION=Friction, ADJUST=0.00001, TYPE=SURFACE TO SURFACE, SMALL SLIDING
S,M
*SURFACE, NAME = M, TYPE = ELEMENT
**HMNAME CONTACTSURF  M,       4
    1205, S2
    1207, S4
    1203, S4
    1208, S2
    1201, S4
    1204, S2
    1202, S2
    1209, S4
*SURFACE, NAME = S, TYPE = ELEMENT
**HMNAME CONTACTSURF  S,       5
    5643, S1
    5641, S1
    5553, S1
    5555, S1
    5238, S1
    5240, S1
    5200, S1
    5198, S1
    5673, S1
    5675, S1
    5649, S1
    5651, S1
    5096, S1
    5094, S1
    5118, S1
    5120, S1
    5523, S1
    5521, S1
    5547, S1
    5545, S1
** ... 12 like lines cut
**HMNAME LOADSTEP          1 Static
*STEP, NAME = Static, NLGEOM = YES
Static
*STATIC
1.0       ,1.0       ,1.0000E-05,1.0       
**HWNAME LOADCOL          1 BCs
**HWCOLOR LOADCOL          1     4
*BOUNDARY
BCs,1,2,0.0
**HWNAME LOADCOL          2 Load
**HWCOLOR LOADCOL          2     3
*DLOAD
      6880,   P2,1000000.0 
      6878,   P2,1000000.0 
      6534,   P2,1000000.0 
      6536,   P2,1000000.0 
      7046,   P2,1000000.0 
      7048,   P2,1000000.0 
      6368,   P2,1000000.0 
      6366,   P2,1000000.0 
      6910,   P2,1000000.0 
      6912,   P2,1000000.0 
      6886,   P2,1000000.0 
      6888,   P2,1000000.0 
      6504,   P2,1000000.0 
      6502,   P2,1000000.0 
      6528,   P2,1000000.0 
      6526,   P2,1000000.0 
      7016,   P2,1000000.0 
      7014,   P2,1000000.0 
      7040,   P2,1000000.0 
      7038,   P2,1000000.0 
** ... 12 like lines cut
*OUTPUT, FIELD
*NODE OUTPUT
U,
RF,
CF,
TF,
*ELEMENT OUTPUT
S,
E,
EP,
PE,
*CONTACT OUTPUT
CSTRESS,
CDISP,
*END STEP
