 Abaqus/Standard 6.10-1                  DATE 05-Feb-2020 TIME 19:28:26
 SUMMARY OF JOB INFORMATION:
 STEP  INC ATT SEVERE EQUIL TOTAL  TOTAL      STEP       INC OF       DOF    IF
               DISCON ITERS ITERS  TIME/    TIME/LPF    TIME/LPF    MONITOR RIKS
               ITERS               FREQ
   1     1   1U    0     5     5  0.000      0.000      1.000     
   1     1   2     0     6     6  0.250      0.250      0.2500    
   1     2   1     0     6     6  0.500      0.500      0.2500    
   1     3   1     0    10    10  0.750      0.750      0.2500    
   1     4   1U    0     4     4  0.750      0.750      0.2500    
   1     4   2     0    10    10  0.813      0.813      0.06250   
   1     5   1     0    10    10  0.875      0.875      0.06250   
   1     6   1     0    10    10  0.938      0.938      0.06250   
   1     7   1     0     7     7  1.00       1.00       0.06250   
                          
 THE ANALYSIS HAS COMPLETED SUCCESSFULLY
